Circuit: *** SPICE deck for cell 8BitCam{sch} from library Project

Vc7: Removing PWL point (2e-008,1)
Vc6: Removing PWL point (2e-008,0)
Vc5: Removing PWL point (2e-008,0)
Vc4: Removing PWL point (2e-008,0)
Vc3: Removing PWL point (2e-008,0)
Vc2: Removing PWL point (2e-008,0)
Vc1: Removing PWL point (2e-008,0)
Vc0: Removing PWL point (2e-008,1)
Vrd: Removing PWL point (2e-008,0)
Vd7: Removing PWL point (2e-008,0)
Vd6: Removing PWL point (2e-008,0)
Vd5: Removing PWL point (2e-008,0)
Vd4: Removing PWL point (2e-008,0)
Vd3: Removing PWL point (2e-008,0)
Vd2: Removing PWL point (2e-008,0)
Vd1: Removing PWL point (2e-008,0)
Vd0: Removing PWL point (2e-008,1)
Vc: Removing PWL point (2e-008,0)
Vb: Removing PWL point (2e-008,0)
Va: Removing PWL point (2e-008,1)
Direct Newton iteration failed to find .op point.  (Use ".option noopiter" to skip.)
Starting Gmin stepping
Gmin = 10
Gmin = 1.07374
Gmin = 0.115292
Gmin = 0.0123794
Gmin = 0.00132923
Gmin = 0.000142725
Gmin = 1.5325e-005
Gmin = 1.6455e-006
Gmin = 1.76685e-007
Gmin = 1.89714e-008
Gmin = 2.03704e-009
Gmin = 2.18725e-010
Gmin = 2.34854e-011
Gmin = 2.52173e-012
Gmin = 2.70769e-013
Gmin = 0
Gmin stepping succeeded in finding the operating point.


Date: Fri Jul 07 15:25:50 2023
Total elapsed time: 29.765 seconds.

tnom = 27
temp = 27
method = modified trap
totiter = 3979
traniter = 3396
tranpoints = 1228
accept = 1179
rejected = 49
matrix size = 5813
fillins = 1364
solver = Normal
Thread vector: 1893.6/526.8[8] 421.8/92.7[8] 269.6/130.5[8] 70.5/31.1[8]  2592/500
Matrix Compiler1: 1.14 MB object code size  714.0/323.5/[207.1]
Matrix Compiler2: 790.86 KB object code size  298.6/214.5/[134.5]

