Circuit: *** SPICE deck for cell 9TSRAM{sch} from library Project

WARNING: Node OUT is floating.

WARNING: Less than two connections to node OUT.  This node is used by CLOAD.
Direct Newton iteration for .op point succeeded.
Breakpoint in the past!

Date: Fri Jul 07 15:44:07 2023
Total elapsed time: 0.120 seconds.

tnom = 27
temp = 27
method = modified trap
totiter = 2376
traniter = 2368
tranpoints = 1108
accept = 1106
rejected = 2
matrix size = 50
fillins = 0
solver = Normal
Matrix Compiler1: 5.30 KB object code size  1.9/1.0/[0.4]
Matrix Compiler2: off  [0.7]/1.1/1.1

